Version 4
SHEET 1 1412 924
WIRE 512 -32 400 -32
WIRE 688 -32 576 -32
WIRE 400 64 400 -32
WIRE 400 64 128 64
WIRE 480 64 400 64
WIRE 688 64 688 -32
WIRE 688 64 608 64
WIRE 832 64 688 64
WIRE 928 64 832 64
WIRE 128 80 128 64
WIRE 128 80 48 80
WIRE 224 80 128 80
WIRE 688 80 688 64
WIRE 48 96 48 80
WIRE 224 96 224 80
WIRE 544 160 544 112
WIRE 624 160 544 160
WIRE 544 176 544 160
WIRE 928 176 928 64
WIRE 400 192 400 64
WIRE 624 192 624 160
WIRE 688 192 688 160
WIRE 688 192 624 192
WIRE 832 192 832 64
WIRE 48 240 48 160
WIRE 48 240 -176 240
WIRE 688 240 688 192
WIRE -176 272 -176 240
WIRE 544 272 544 256
WIRE -176 384 -176 352
WIRE 400 384 400 256
WIRE 400 384 -176 384
WIRE 544 384 544 352
WIRE 544 384 400 384
WIRE 688 384 688 304
WIRE 688 384 544 384
WIRE 832 384 832 256
WIRE 832 384 688 384
WIRE 928 384 928 256
WIRE 928 384 832 384
WIRE 976 384 928 384
WIRE 544 400 544 384
WIRE 976 400 976 384
WIRE -176 416 -176 384
WIRE 688 464 688 384
WIRE 544 496 544 480
WIRE 400 512 400 384
WIRE 832 512 832 384
WIRE 928 512 928 384
WIRE -176 528 -176 496
WIRE 224 528 224 160
WIRE 224 528 -176 528
WIRE 48 560 48 240
WIRE 224 560 224 528
WIRE 688 576 688 528
WIRE 688 576 640 576
WIRE 544 608 544 576
WIRE 640 608 640 576
WIRE 640 608 544 608
WIRE 688 608 688 576
WIRE 48 656 48 624
WIRE 128 656 48 656
WIRE 224 656 224 624
WIRE 224 656 128 656
WIRE 544 656 544 608
WIRE 128 704 128 656
WIRE 400 704 400 576
WIRE 400 704 128 704
WIRE 480 704 400 704
WIRE 688 704 688 688
WIRE 688 704 608 704
WIRE 832 704 832 576
WIRE 832 704 688 704
WIRE 928 704 928 592
WIRE 928 704 832 704
WIRE 400 784 400 704
WIRE 512 784 400 784
WIRE 688 784 688 704
WIRE 688 784 576 784
FLAG 928 64 Vo+
FLAG 928 704 Vo-
FLAG 976 400 0
FLAG 128 64 +12ef
FLAG 128 704 -12ef
SYMBOL diode 64 160 R180
WINDOW 0 24 64 Left 2
WINDOW 3 24 0 Left 2
SYMATTR InstName D1
SYMATTR Value 1N4007
SYMBOL diode 240 160 R180
WINDOW 0 24 64 Left 2
WINDOW 3 24 0 Left 2
SYMATTR InstName D2
SYMATTR Value 1N4007
SYMBOL diode 64 624 R180
WINDOW 0 24 64 Left 2
WINDOW 3 24 0 Left 2
SYMATTR InstName D3
SYMATTR Value 1N4007
SYMBOL diode 240 624 R180
WINDOW 0 24 64 Left 2
WINDOW 3 24 0 Left 2
SYMATTR InstName D4
SYMATTR Value 1N4007
SYMBOL Misc\\signal -176 256 R0
WINDOW 3 -234 10 Left 2
WINDOW 123 0 0 Left 0
WINDOW 39 0 0 Left 0
SYMATTR Value SINE(0 16.97 50)
SYMATTR InstName V1
SYMBOL res 672 64 R0
SYMATTR InstName R1
SYMATTR Value 510
SYMBOL res 528 160 R0
SYMATTR InstName R2
SYMATTR Value {R2_var}
SYMBOL diode 576 -48 R90
WINDOW 0 0 32 VBottom 2
WINDOW 3 32 32 VTop 2
SYMATTR InstName D5
SYMATTR Value 1N4007
SYMBOL cap 672 240 R0
SYMATTR InstName Cadj
SYMATTR Value 10µ
SYMBOL res 912 160 R0
SYMATTR InstName RL
SYMATTR Value 1k
SYMBOL cap 384 192 R0
SYMATTR InstName Cin
SYMATTR Value 2200µ
SYMBOL cap 816 192 R0
SYMATTR InstName Cout
SYMATTR Value 1µ
SYMBOL LM317 544 64 R0
SYMATTR InstName U1
SYMBOL voltage 544 368 R180
WINDOW 0 24 96 Left 2
WINDOW 3 24 16 Left 2
SYMATTR InstName V2
SYMATTR Value 1.2
SYMBOL res 672 704 M180
WINDOW 0 36 76 Left 2
WINDOW 3 36 40 Left 2
SYMATTR InstName R3
SYMATTR Value 510
SYMBOL res 528 592 M180
WINDOW 0 36 76 Left 2
WINDOW 3 36 40 Left 2
SYMATTR InstName R4
SYMATTR Value {R2_var}
SYMBOL cap 672 528 M180
WINDOW 0 24 56 Left 2
WINDOW 3 24 8 Left 2
SYMATTR InstName Cadj1
SYMATTR Value 10µ
SYMBOL res 912 608 M180
WINDOW 0 36 76 Left 2
WINDOW 3 36 40 Left 2
SYMATTR InstName RL1
SYMATTR Value 1k
SYMBOL cap 384 576 M180
WINDOW 0 24 56 Left 2
WINDOW 3 24 8 Left 2
SYMATTR InstName Cin1
SYMATTR Value 2200µ
SYMBOL cap 816 576 M180
WINDOW 0 24 56 Left 2
WINDOW 3 24 8 Left 2
SYMATTR InstName Cout1
SYMATTR Value 1µ
SYMBOL voltage 544 496 M180
WINDOW 0 24 96 Left 2
WINDOW 3 24 16 Left 2
SYMATTR InstName V3
SYMATTR Value 1.2
SYMBOL Misc\\signal -176 512 R180
WINDOW 3 35 58 Left 2
WINDOW 123 0 0 Left 0
WINDOW 39 0 0 Left 0
SYMATTR Value SINE(0 16.97 50)
SYMATTR InstName V4
SYMBOL LM337 544 704 M180
SYMATTR InstName U2
SYMBOL diode 512 800 R270
WINDOW 0 32 32 VTop 2
WINDOW 3 0 32 VBottom 2
SYMATTR InstName D6
SYMATTR Value 1N4007
TEXT -232 8 Left 2 !.tran 1
TEXT -232 -24 Left 2 !.step param R2_var 1 5500 1100
