Version 4
SHEET 1 984 680
WIRE 512 -32 400 -32
WIRE 688 -32 576 -32
WIRE 400 64 400 -32
WIRE 400 64 128 64
WIRE 480 64 400 64
WIRE 640 64 608 64
WIRE 688 64 688 -32
WIRE 688 64 640 64
WIRE 832 64 688 64
WIRE 928 64 832 64
WIRE 128 80 128 64
WIRE 128 80 48 80
WIRE 224 80 128 80
WIRE 48 96 48 80
WIRE 224 96 224 80
WIRE 640 96 640 64
WIRE 688 96 688 64
WIRE 928 176 928 64
WIRE 400 192 400 64
WIRE 832 192 832 64
WIRE 48 208 48 160
WIRE 48 208 -272 208
WIRE 224 208 224 160
WIRE 336 208 224 208
WIRE 544 208 544 112
WIRE 640 208 640 160
WIRE 640 208 544 208
WIRE 688 208 688 176
WIRE 688 208 640 208
WIRE -272 240 -272 208
WIRE 544 240 544 208
WIRE 688 240 688 208
WIRE 48 256 48 208
WIRE 224 256 224 208
WIRE 48 352 48 320
WIRE 128 352 48 352
WIRE 224 352 224 320
WIRE 224 352 128 352
WIRE 128 384 128 352
WIRE 400 384 400 256
WIRE 400 384 128 384
WIRE 544 384 544 320
WIRE 544 384 400 384
WIRE 688 384 688 304
WIRE 688 384 544 384
WIRE 832 384 832 256
WIRE 832 384 688 384
WIRE 928 384 928 256
WIRE 928 384 832 384
WIRE -272 416 -272 320
WIRE 336 416 336 208
WIRE 336 416 -272 416
WIRE 544 432 544 384
FLAG 928 64 Vo1
FLAG 928 384 Vo2
FLAG 544 432 0
SYMBOL diode 64 160 R180
WINDOW 0 24 64 Left 2
WINDOW 3 24 0 Left 2
SYMATTR InstName D1
SYMATTR Value 1N4007
SYMBOL diode 240 160 R180
WINDOW 0 24 64 Left 2
WINDOW 3 24 0 Left 2
SYMATTR InstName D2
SYMATTR Value 1N4007
SYMBOL diode 64 320 R180
WINDOW 0 24 64 Left 2
WINDOW 3 24 0 Left 2
SYMATTR InstName D3
SYMATTR Value 1N4007
SYMBOL diode 240 320 R180
WINDOW 0 24 64 Left 2
WINDOW 3 24 0 Left 2
SYMATTR InstName D4
SYMATTR Value 1N4007
SYMBOL Misc\\signal -272 224 R0
WINDOW 3 -59 102 Left 2
WINDOW 123 0 0 Left 0
WINDOW 39 0 0 Left 0
SYMATTR InstName V1
SYMATTR Value SINE(0 23.82 50)
SYMBOL LM317 544 64 R0
SYMATTR InstName U1
SYMBOL res 672 80 R0
SYMATTR InstName R1
SYMATTR Value 510
SYMBOL res 528 224 R0
SYMATTR InstName R2
SYMATTR Value 5.5k
SYMBOL diode 576 -48 R90
WINDOW 0 0 32 VBottom 2
WINDOW 3 32 32 VTop 2
SYMATTR InstName D5
SYMATTR Value 1N4007
SYMBOL cap 672 240 R0
SYMATTR InstName Cadj
SYMATTR Value 10µ
SYMBOL res 912 160 R0
SYMATTR InstName RL
SYMATTR Value 1k
SYMBOL cap 384 192 R0
SYMATTR InstName Cin
SYMATTR Value 33.3m
SYMBOL cap 816 192 R0
SYMATTR InstName Cout
SYMATTR Value 1µ
SYMBOL diode 656 160 R180
WINDOW 0 35 32 Left 2
WINDOW 3 17 6 Left 2
SYMATTR InstName D6
SYMATTR Value 1N4007
TEXT -306 432 Left 2 !.tran 1
