Version 4
SHEET 1 1752 680
WIRE 896 -240 768 -240
WIRE 1104 -240 960 -240
WIRE 592 -128 400 -128
WIRE 768 -128 768 -240
WIRE 768 -128 592 -128
WIRE 864 -128 768 -128
WIRE 1104 -128 1104 -240
WIRE 1104 -128 992 -128
WIRE 1312 -128 1104 -128
WIRE 1488 -128 1312 -128
WIRE 1632 -128 1488 -128
WIRE 1104 -96 1104 -128
WIRE 1312 -96 1312 -128
WIRE 400 -80 400 -128
WIRE 592 -80 592 -128
WIRE 1488 -32 1488 -128
WIRE 1632 -32 1632 -128
WIRE 768 0 768 -128
WIRE 928 16 928 -80
WIRE 1104 16 1104 -16
WIRE 1104 16 928 16
WIRE 1312 16 1312 -32
WIRE 1312 16 1104 16
WIRE 592 48 592 -16
WIRE 672 48 592 48
WIRE 928 48 928 16
WIRE 1104 48 1104 16
WIRE 1312 48 1312 16
WIRE -64 64 -128 64
WIRE 80 64 16 64
WIRE 400 64 400 -16
WIRE 400 64 192 64
WIRE 400 80 400 64
WIRE 592 80 592 48
WIRE 1488 96 1488 32
WIRE 1488 96 1376 96
WIRE -128 112 -128 64
WIRE 80 112 80 64
WIRE 192 112 192 64
WIRE 400 192 400 144
WIRE 592 192 592 144
WIRE 592 192 400 192
WIRE 768 192 768 64
WIRE 768 192 592 192
WIRE 928 192 928 128
WIRE 928 192 768 192
WIRE 1104 192 1104 112
WIRE 1104 192 928 192
WIRE 1312 192 1312 144
WIRE 1312 192 1104 192
WIRE 1360 192 1312 192
WIRE 1488 192 1488 96
WIRE 1488 192 1440 192
WIRE 1632 192 1632 48
WIRE 1632 192 1488 192
WIRE 768 224 768 192
WIRE -128 240 -128 192
WIRE -16 240 -128 240
WIRE 80 240 80 192
WIRE 80 240 -16 240
WIRE 192 240 192 192
WIRE 672 240 672 48
WIRE 672 240 192 240
WIRE -16 272 -16 240
FLAG -16 272 0
FLAG 768 224 0
FLAG 80 64 Vp
FLAG 192 64 Vs
FLAG 1632 -128 Vo1
FLAG 1632 192 Vo2
SYMBOL ind2 64 96 R0
SYMATTR InstName L1
SYMATTR Value 1m
SYMATTR Type ind
SYMBOL ind2 176 208 M180
WINDOW 0 36 80 Left 2
WINDOW 3 36 40 Left 2
SYMATTR InstName L2
SYMATTR Value 5.77µ
SYMATTR Type ind
SYMBOL Misc\\signal -128 96 R0
WINDOW 123 -115 131 Left 2
WINDOW 39 0 0 Left 0
WINDOW 3 -211 101 Left 2
SYMATTR Value2 AC 311 0
SYMATTR Value SINE(0 311 50 0)
SYMATTR InstName V1
SYMBOL res 32 48 R90
WINDOW 0 0 56 VBottom 2
WINDOW 3 32 56 VTop 2
SYMATTR InstName Rser
SYMATTR Value 5m
SYMBOL diode 608 144 R180
WINDOW 0 24 64 Left 2
WINDOW 3 24 0 Left 2
SYMATTR InstName D2
SYMATTR Value 1N4007
SYMBOL diode 416 -16 R180
WINDOW 0 24 64 Left 2
WINDOW 3 24 0 Left 2
SYMATTR InstName D3
SYMATTR Value 1N4007
SYMBOL diode 608 -16 R180
WINDOW 0 24 64 Left 2
WINDOW 3 24 0 Left 2
SYMATTR InstName D4
SYMATTR Value 1N4007
SYMBOL diode 416 144 R180
WINDOW 0 24 64 Left 2
WINDOW 3 24 0 Left 2
SYMATTR InstName D1
SYMATTR Value 1N4007
SYMBOL res 1088 -112 R0
SYMATTR InstName R1
SYMATTR Value 240
SYMBOL res 912 32 R0
SYMATTR InstName R2
SYMATTR Value {R2_val}
SYMBOL cap 1088 48 R0
SYMATTR InstName Cadj
SYMATTR Value 10µ
SYMBOL diode 1328 -32 R180
WINDOW 0 24 64 Left 2
WINDOW 3 24 0 Left 2
SYMATTR InstName D5
SYMATTR Value 1N4007
SYMBOL diode 960 -256 R90
WINDOW 0 0 32 VBottom 2
WINDOW 3 32 32 VTop 2
SYMATTR InstName D6
SYMATTR Value 1N4007
SYMBOL polcap 752 0 R0
SYMATTR InstName C1
SYMATTR Value 33.3m
SYMBOL polcap 1472 -32 R0
SYMATTR InstName Co
SYMATTR Value 1µ
SYMBOL res 1616 -48 R0
SYMATTR InstName RL
SYMATTR Value 1k
SYMBOL LM317 928 -128 R0
SYMATTR InstName U1
SYMBOL npn 1376 48 M0
SYMATTR InstName Q1
SYMATTR Value BC547C
SYMBOL res 1456 176 R90
WINDOW 0 0 56 VBottom 2
WINDOW 3 32 56 VTop 2
SYMATTR InstName Rsen
SYMATTR Value 650m
TEXT 88 272 Left 2 !K1 L1 L2 1
TEXT -160 304 Left 2 !.tran 1
TEXT -160 344 Left 2 !;ac lin 100 1k 1k
TEXT 776 272 Left 2 ;Vo = 1.25 V (1 + R2 / R1) + Iadj . R2
TEXT 776 312 Left 2 ;Iadj = 50 uA
TEXT 776 368 Left 2 !.step param R2_val list 690 1421 1970
