Version 4
SHEET 1 880 808
WIRE 0 128 -336 128
WIRE 112 128 0 128
WIRE 320 128 240 128
WIRE 480 128 320 128
WIRE 624 128 480 128
WIRE 320 160 320 128
WIRE -336 192 -336 128
WIRE 0 224 0 128
WIRE 480 224 480 128
WIRE 624 224 624 128
WIRE 176 272 176 176
WIRE 320 272 320 240
WIRE 320 272 176 272
WIRE 176 288 176 272
WIRE -336 400 -336 272
WIRE 0 400 0 288
WIRE 0 400 -336 400
WIRE 112 400 0 400
WIRE 480 400 480 288
WIRE 480 400 112 400
WIRE 624 400 624 304
WIRE 624 400 480 400
WIRE -336 432 -336 400
WIRE 112 432 112 400
WIRE 112 512 112 496
WIRE 176 512 176 368
WIRE 176 512 112 512
WIRE 112 528 112 512
WIRE 112 656 112 608
WIRE 112 768 112 736
FLAG -336 432 0
FLAG 112 768 0
FLAG 624 128 Vout
SYMBOL LM317 176 128 R0
SYMATTR InstName U1
SYMBOL res 160 272 R0
SYMATTR InstName R1
SYMATTR Value {Rx}
SYMBOL res 304 144 R0
SYMATTR InstName R2
SYMATTR Value 510
SYMBOL cap -16 224 R0
SYMATTR InstName C2
SYMATTR Value 1µ
SYMBOL cap 464 224 R0
SYMATTR InstName C3
SYMATTR Value 1µ
SYMBOL Misc\\signal -336 176 R0
WINDOW 3 -180 120 Left 2
WINDOW 123 0 0 Left 0
WINDOW 39 0 0 Left 0
SYMATTR InstName V1
SYMATTR Value PULSE(0 16.97 0 1p 1p 700m 1 10)
SYMBOL res 96 512 R0
SYMATTR InstName R3
SYMATTR Value 47k
SYMBOL Misc\\battery 112 752 R180
WINDOW 0 24 104 Left 2
WINDOW 3 24 16 Left 2
WINDOW 123 0 0 Left 0
WINDOW 39 0 0 Left 0
SYMATTR InstName V2
SYMATTR Value -5
SYMBOL res 608 208 R0
SYMATTR InstName R4
SYMATTR Value 10k
SYMBOL References\\LT1389-1.25 112 464 R0
SYMATTR InstName U2
TEXT -370 792 Left 2 !.tran 3
TEXT 320 504 Left 2 !.step param Rx list 1 100 500 1k 2k 5k 5.5k
