Version 4
SHEET 1 880 680
WIRE 384 -96 288 -96
WIRE 688 -96 384 -96
WIRE 288 -48 288 -96
WIRE 384 32 384 -96
WIRE 96 80 16 80
WIRE 208 80 176 80
WIRE 288 80 288 32
WIRE 288 80 272 80
WIRE 320 80 288 80
WIRE 688 96 688 -96
WIRE 16 128 16 80
WIRE 288 144 288 80
WIRE 384 160 384 128
WIRE 432 160 384 160
WIRE 560 160 496 160
WIRE 384 192 384 160
WIRE 560 192 560 160
WIRE 16 304 16 208
WIRE 288 304 288 224
WIRE 288 304 16 304
WIRE 384 304 384 272
WIRE 384 304 288 304
WIRE 560 304 560 272
WIRE 560 304 384 304
WIRE 688 304 688 176
WIRE 688 304 560 304
WIRE 384 336 384 304
FLAG 384 336 0
FLAG 16 80 vs
FLAG 288 80 vi
FLAG 560 160 vo
FLAG 384 160 ve
FLAG 384 32 vc
SYMBOL Misc\\signal 16 112 R0
SYMATTR InstName Vs
SYMBOL res 192 64 R90
WINDOW 0 0 56 VBottom 2
WINDOW 3 32 56 VTop 2
SYMATTR InstName RS
SYMATTR Value 100k
SYMBOL res 304 48 R180
WINDOW 0 36 76 Left 2
WINDOW 3 36 40 Left 2
SYMATTR InstName R1
SYMATTR Value 99.2k
SYMBOL res 400 288 R180
WINDOW 0 36 76 Left 2
WINDOW 3 36 40 Left 2
SYMATTR InstName RE
SYMATTR Value 1k
SYMBOL res 576 288 R180
WINDOW 0 36 76 Left 2
WINDOW 3 36 40 Left 2
SYMATTR InstName RL
SYMATTR Value {RLx}
SYMBOL cap 496 144 R90
WINDOW 0 0 32 VBottom 2
WINDOW 3 32 32 VTop 2
SYMATTR InstName C1
SYMATTR Value 100n
SYMBOL cap 272 64 R90
WINDOW 0 0 32 VBottom 2
WINDOW 3 32 32 VTop 2
SYMATTR InstName C2
SYMATTR Value 100n
SYMBOL npn 320 32 R0
SYMATTR InstName Q1
SYMATTR Value t1
SYMBOL Misc\\battery 688 80 R0
WINDOW 123 0 0 Left 0
WINDOW 39 0 0 Left 0
SYMATTR InstName VCC
SYMATTR Value 12
SYMBOL res 272 128 R0
WINDOW 0 -49 45 Left 2
WINDOW 3 -71 76 Left 2
SYMATTR InstName R2
SYMATTR Value 72.8k
TEXT 24 352 Left 2 !.model t1 NPN(BF=500 VAF=100)
TEXT 24 376 Left 2 !.tran 10m
TEXT 24 424 Left 2 !.step param RLx list 10k 15k 20k  25k 30k
